@<TRIPOS>MOLECULE
*****
 7 7 0 0 0
SMALL
GASTEIGER
****

@<TRIPOS>ATOM
      1 C           8.1471  -11.1563    0.0000 C.ar    1  UNL1        0.0420
      2 C           8.1471  -12.6562    0.0000 C.ar    1  UNL1        0.0033
      3 C           9.4461  -10.4063    0.0000 C.ar    1  UNL1        0.1957
      4 C          10.7452  -11.1563    0.0000 C.ar    1  UNL1        0.0420
      5 C          10.7452  -12.6562    0.0000 C.ar    1  UNL1        0.0033
      6 C           9.4461  -13.4062    0.0000 C.ar    1  UNL1        0.0002
      7 O           9.4461   -8.9063    0.0000 O.3     1  UNL1       -0.2866
@<TRIPOS>BOND
     1     1     2   ar
     2     3     1   ar
     3     7     3    1
     4     4     3   ar
     5     4     5   ar
     6     5     6   ar
     7     6     2   ar
