# created with PyMOL 2.5.5
@<TRIPOS>MOLECULE
*****
13 13 1                 
SMALL
USER_CHARGES
@<TRIPOS>ATOM
1	   C	8.147	-11.156	0.000	C.2	1	PHEN	0.042	
2	   C	8.147	-12.656	0.000	C.2	1	PHEN	0.003	
3	   C	9.446	-10.406	0.000	C.2	1	PHEN	0.196	
4	   C	10.745	-11.156	0.000	C.2	1	PHEN	0.042	
5	   C	10.745	-12.656	0.000	C.2	1	PHEN	0.003	
6	   C	9.446	-13.406	0.000	C.2	1	PHEN	0.000	
7	   O	9.446	-8.906	0.000	O.3	1	PHEN	-0.287	
8	 H01	7.203	-10.611	0.000	 H	1	PHEN	0.000	
9	 H02	7.203	-13.201	0.000	 H	1	PHEN	0.000	
10	 H03	11.689	-10.611	0.000	 H	1	PHEN	0.000	
11	 H04	11.689	-13.201	0.000	 H	1	PHEN	0.000	
12	 H05	9.446	-14.496	0.000	 H	1	PHEN	0.000	
13	 H06	9.446	-8.586	0.905	 H	1	PHEN	0.000	
@<TRIPOS>BOND
1 1 2 ar
2 1 8 1
3 2 9 1
4 1 3 ar
5 3 4 ar
6 4 5 ar
7 4 10 1
8 5 6 ar
9 5 11 1
10 2 6 ar
11 6 12 1
12 3 7 1
13 7 13 1
@<TRIPOS>SUBSTRUCTURE
1	PHEN	1	GROUP	1 ****	PHE
