@<TRIPOS>MOLECULE
Riboflavin
47   49    1
SMALL
USER_CHARGES


@<TRIPOS>ATOM
      1 O1          1.5771    1.7039    0.6395 O.3       1 UNK         0.0000 
      2 O2          3.7723   -0.2458   -1.5605 O.3       1 UNK         0.0000 
      3 O3          5.7180    1.2430   -0.2447 O.3       1 UNK         0.0000 
      4 O4          5.5145    0.0984    2.2992 O.3       1 UNK         0.0000 
      5 O5         -4.6591    1.6319    1.0671 O.2       1 UNK         0.0000 
      6 O6         -1.5992    4.6697   -0.5235 O.2       1 UNK         0.0000 
      7 N7         -0.3946    0.1687   -0.6768 N.pl3     1 UNK         0.0000 
      8 N8         -2.9293   -0.3520    0.4768 N.2       1 UNK         0.0000 
      9 N9         -1.0056    2.4739   -0.6013 N.2       1 UNK         0.0000 
     10 N10        -3.1235    3.1865    0.2663 N.pl3     1 UNK         0.0000 
     11 C11         1.9687    0.5944   -0.1701 C.3       1 UNK         0.0000 
     12 C12         0.9205    0.4004   -1.2722 C.3       1 UNK         0.0000 
     13 C13         3.3813    0.8488   -0.7328 C.3       1 UNK         0.0000 
     14 C14         4.4430    1.0385    0.3673 C.3       1 UNK         0.0000 
     15 C15        -0.7744   -1.1628   -0.3984 C.ar      1 UNK         0.0000 
     16 C16        -1.2594    1.2169   -0.3852 C.ar      1 UNK         0.0000 
     17 C17        -2.0408   -1.3962    0.1756 C.ar      1 UNK         0.0000 
     18 C18         0.0439   -2.2771   -0.6628 C.ar      1 UNK         0.0000 
     19 C19        -2.5894    0.8705    0.2258 C.ar      1 UNK         0.0000 
     20 C20         4.5400   -0.1709    1.2962 C.3       1 UNK         0.0000 
     21 C21        -0.3785   -3.5763   -0.3690 C.ar      1 UNK         0.0000 
     22 C22        -2.4555   -2.7049    0.4666 C.ar      1 UNK         0.0000 
     23 C23        -1.6286   -3.7907    0.1958 C.ar      1 UNK         0.0000 
     24 C24        -3.5852    1.9285    0.5726 C.ar      1 UNK         0.0000 
     25 C25         0.5333   -4.7204   -0.6716 C.3       1 UNK         0.0000 
     26 C26        -2.1039   -5.1680    0.5210 C.3       1 UNK         0.0000 
     27 C27        -1.8857    3.4912   -0.3009 C.ar      1 UNK         0.0000 
     28 H28         1.9720   -0.3016    0.4584 H         1 UNK         0.0000 
     29 H29         0.8753    1.3221   -1.8685 H         1 UNK         0.0000 
     30 H30         1.2031   -0.3658   -2.0007 H         1 UNK         0.0000 
     31 H31         3.3733    1.7451   -1.3654 H         1 UNK         0.0000 
     32 H32         4.2237    1.9412    0.9490 H         1 UNK         0.0000 
     33 H33         1.0369   -2.1606   -1.0858 H         1 UNK         0.0000 
     34 H34         3.6022   -0.3935    1.8094 H         1 UNK         0.0000 
     35 H35         4.8737   -1.0631    0.7577 H         1 UNK         0.0000 
     36 H36        -3.4369   -2.8635    0.9096 H         1 UNK         0.0000 
     37 H37         1.4773   -4.3846   -1.1148 H         1 UNK         0.0000 
     38 H38         0.7840   -5.2658    0.2441 H         1 UNK         0.0000 
     39 H39         0.0677   -5.4054   -1.3876 H         1 UNK         0.0000 
     40 H40        -3.1083   -5.1583    0.9586 H         1 UNK         0.0000 
     41 H41        -2.1525   -5.7832   -0.3833 H         1 UNK         0.0000 
     42 H42        -1.4395   -5.6435    1.2498 H         1 UNK         0.0000 
     43 H43         1.6627    1.4613    1.5955 H         1 UNK         0.0000 
     44 H44         4.0449   -1.0088   -0.9916 H         1 UNK         0.0000 
     45 H45         6.4071    1.3535    0.4574 H         1 UNK         0.0000 
     46 H46         5.1067   -0.0143    3.1942 H         1 UNK         0.0000 
     47 H47        -3.7493    3.9775    0.4748 H         1 UNK         0.0000 
@<TRIPOS>BOND
     1    1   11 1    
     2    1   43 1    
     3    2   13 1    
     4    2   44 1    
     5    3   14 1    
     6    3   45 1    
     7    4   20 1    
     8    4   46 1    
     9    5   24 2    
    10    6   27 2    
    11    7   12 1    
    12    7   15 ar   
    13    7   16 ar   
    14    8   17 ar   
    15    8   19 ar   
    16    9   16 ar   
    17    9   27 ar   
    18   10   24 ar   
    19   10   27 ar   
    20   10   47 1    
    21   11   12 1    
    22   11   13 1    
    23   11   28 1    
    24   12   29 1    
    25   12   30 1    
    26   13   14 1    
    27   13   31 1    
    28   14   20 1    
    29   14   32 1    
    30   15   17 ar   
    31   15   18 ar   
    32   16   19 ar   
    33   17   22 ar   
    34   18   21 ar   
    35   18   33 1    
    36   19   24 ar   
    37   20   34 1    
    38   20   35 1    
    39   21   23 ar   
    40   21   25 1    
    41   22   23 ar   
    42   22   36 1    
    43   23   26 1    
    44   25   37 1    
    45   25   38 1    
    46   25   39 1    
    47   26   40 1    
    48   26   41 1    
    49   26   42 1    
@<TRIPOS>SUBSTRUCTURE
     1 UNK         1 GROUP             0       ****    0 ROOT    
