@<TRIPOS>MOLECULE
Riboflavin
 47 49 0 0 0
SMALL
GASTEIGER

@<TRIPOS>ATOM
1       O1           1.5771     1.7039     0.6395 O.3      1 UNL1      -0.3876
2       O2           3.7723    -0.2458    -1.5605 O.3      1 UNL1      -0.3865
3       O3           5.7180     1.2430    -0.2447 O.3      1 UNL1      -0.3869
4       O4           5.5145     0.0984     2.2992 O.3      1 UNL1      -0.3924
5       O5          -4.6591     1.6319     1.0671 O.co2    1 UNL1      -0.8586
6       O6          -1.5992     4.6697    -0.5235 O.2      1 UNL1      -0.2447
7       N7          -0.3946     0.1687    -0.6768 N.pl3    1 UNL1      -0.2951
8       N8          -2.9293    -0.3520     0.4768 N.2      1 UNL1      -0.2453
9       N9          -1.0056     2.4739    -0.6013 N.ar     1 UNL1      -0.2927
10      N10         -3.1235     3.1865     0.2663 N.ar     1 UNL1      -0.2072
11      C11          1.9687     0.5944    -0.1701 C.3      1 UNL1       0.0992
12      C12          0.9205     0.4004    -1.2722 C.3      1 UNL1       0.0433
13      C13          3.3813     0.8488    -0.7328 C.3      1 UNL1       0.1104
14      C14          4.4430     1.0385     0.3673 C.3      1 UNL1       0.1065
15      C15         -0.7744    -1.1628    -0.3984 C.3      1 UNL1       0.1278
16      C16         -1.2594     1.2169    -0.3852 C.ar     1 UNL1       0.1307
17      C17         -2.0408    -1.3962     0.1756 C.2      1 UNL1       0.0726
18      C18          0.0439    -2.2771    -0.6628 C.2      1 UNL1      -0.0489
19      C19         -2.5894     0.8705     0.2258 C.ar     1 UNL1       0.1131
20      C20          4.5400    -0.1709     1.2962 C.3      1 UNL1       0.0726
21      C21         -0.3785    -3.5763    -0.3690 C.2      1 UNL1      -0.0489
22      C22         -2.4555    -2.7049     0.4666 C.2      1 UNL1      -0.0347
23      C23         -1.6286    -3.7907     0.1958 C.2      1 UNL1      -0.0460
24      C24         -3.5852     1.9285     0.5726 C.ar     1 UNL1       0.0227
25      C25          0.5333    -4.7204    -0.6716 C.3      1 UNL1      -0.0397
26      C26         -2.1039    -5.1680     0.5210 C.3      1 UNL1      -0.0394
27      C27         -1.8857     3.4912    -0.3009 C.ar     1 UNL1       0.3467
28      H28          1.9720    -0.3016     0.4584 H        1 UNL1       0.0636
29      H29          0.8753     1.3221    -1.8685 H        1 UNL1       0.0491
30      H30          1.2031    -0.3658    -2.0007 H        1 UNL1       0.0491
31      H31          3.3733     1.7451    -1.3654 H        1 UNL1       0.0646
32      H32          4.2237     1.9412     0.9490 H        1 UNL1       0.0643
33      H33          1.0369    -2.1606    -1.0858 H        1 UNL1       0.0601
34      H34          3.6022    -0.3935     1.8094 H        1 UNL1       0.0584
35      H35          4.8737    -1.0631     0.7577 H        1 UNL1       0.0584
36      H36         -3.4369    -2.8635     0.9096 H        1 UNL1       0.0639
37      H37          1.4773    -4.3846    -1.1148 H        1 UNL1       0.0278
38      H38          0.7840    -5.2658     0.2441 H        1 UNL1       0.0278
39      H39          0.0677    -5.4054    -1.3876 H        1 UNL1       0.0278
40      H40         -3.1083    -5.1583     0.9586 H        1 UNL1       0.0278
41      H41         -2.1525    -5.7832    -0.3833 H        1 UNL1       0.0278
42      H42         -1.4395    -5.6435     1.2498 H        1 UNL1       0.0278
43      H43          1.6627     1.4613     1.5955 H        1 UNL1       0.2100
44      H44          4.0449    -1.0088    -0.9916 H        1 UNL1       0.2100
45      H45          6.4071     1.3535     0.4574 H        1 UNL1       0.2100
46      H46          5.1067    -0.0143     3.1942 H        1 UNL1       0.2095
47      H47         -0.0978     2.7227    -1.0196 H        1 UNL1       0.1717
@<TRIPOS>UNITY_ATOM_ATTR
5 1
charge -1
@<TRIPOS>BOND
     1     1    11    1
     2     1    43    1
     3     2    13    1
     4     2    44    1
     5     3    14    1
     6     3    45    1
     7     4    20    1
     8     4    46    1
     9     5    24    1
    10     6    27    2
    11     7    12    1
    12     7    15    1
    13     7    16    1
    14     8    17    2
    15     8    19    1
    16     9    16   ar
    17     9    27   ar
    18     9    47    1
    19    10    24   ar
    20    10    27   ar
    21    11    12    1
    22    11    13    1
    23    11    28    1
    24    12    29    1
    25    12    30    1
    26    13    14    1
    27    13    31    1
    28    14    20    1
    29    14    32    1
    30    15    17    1
    31    15    18    1
    32    16    19   ar
    33    17    22    1
    34    18    21    2
    35    18    33    1
    36    19    24   ar
    37    20    34    1
    38    20    35    1
    39    21    23    1
    40    21    25    1
    41    22    23    2
    42    22    36    1
    43    23    26    1
    44    25    37    1
    45    25    38    1
    46    25    39    1
    47    26    40    1
    48    26    41    1
    49    26    42    1
