@<TRIPOS>MOLECULE
Riboflavin
 45 47 0 0 0
SMALL
GASTEIGER

@<TRIPOS>ATOM
1       O1           1.5771     1.7039     0.6395 O.3      1 UNL1      -0.2265
2       O2           3.7723    -0.2458    -1.5605 O.3      1 UNL1      -0.3864
3       O3           5.7180     1.2430    -0.2447 O.3      1 UNL1      -0.3869
4       O4           5.5145     0.0984     2.2992 O.3      1 UNL1      -0.3924
5       O5          -4.6591     1.6319     1.0671 O.co2    1 UNL1      -0.8586
6       O6          -1.5992     4.6697    -0.5235 O.2      1 UNL1      -0.2426
7       N7          -0.3946     0.1687    -0.6768 N.ar     1 UNL1      -0.3195
8       N8          -2.9293    -0.3520     0.4768 N.ar     1 UNL1      -0.2412
9       N9          -1.0056     2.4739    -0.6013 N.ar     1 UNL1      -0.1719
10      N10         -3.1235     3.1865     0.2663 N.ar     1 UNL1      -0.2056
11      C11          1.9687     0.5944    -0.1701 C.3      1 UNL1       0.1397
12      C12          0.9205     0.4004    -1.2722 C.3      1 UNL1       0.0571
13      C13          3.3813     0.8488    -0.7328 C.3      1 UNL1       0.1139
14      C14          4.4430     1.0385     0.3673 C.3      1 UNL1       0.1066
15      C15         -0.7744    -1.1628    -0.3984 C.ar     1 UNL1       0.0694
16      C16         -1.2594     1.2169    -0.3852 C.ar     1 UNL1       0.1660
17      C17         -2.0408    -1.3962     0.1756 C.ar     1 UNL1       0.0884
18      C18          0.0439    -2.2771    -0.6628 C.ar     1 UNL1      -0.0329
19      C19         -2.5894     0.8705     0.2258 C.ar     1 UNL1       0.1179
20      C20          4.5400    -0.1709     1.2962 C.3      1 UNL1       0.0727
21      C21         -0.3785    -3.5763    -0.3690 C.ar     1 UNL1      -0.0455
22      C22         -2.4555    -2.7049     0.4666 C.ar     1 UNL1      -0.0311
23      C23         -1.6286    -3.7907     0.1958 C.ar     1 UNL1      -0.0454
24      C24         -3.5852     1.9285     0.5726 C.ar     1 UNL1       0.0231
25      C25          0.5333    -4.7204    -0.6716 C.3      1 UNL1      -0.0394
26      C26         -2.1039    -5.1680     0.5210 C.3      1 UNL1      -0.0394
27      C27         -1.8857     3.4912    -0.3009 C.ar     1 UNL1       0.3690
28      H28          1.9720    -0.3016     0.4584 H        1 UNL1       0.0673
29      H29          0.8753     1.3221    -1.8685 H        1 UNL1       0.0520
30      H30          1.2031    -0.3658    -2.0007 H        1 UNL1       0.0520
31      H31          3.3733     1.7451    -1.3654 H        1 UNL1       0.0647
32      H32          4.2237     1.9412     0.9490 H        1 UNL1       0.0643
33      H33          1.0369    -2.1606    -1.0858 H        1 UNL1       0.0641
34      H34          3.6022    -0.3935     1.8094 H        1 UNL1       0.0584
35      H35          4.8737    -1.0631     0.7577 H        1 UNL1       0.0584
36      H36         -3.4369    -2.8635     0.9096 H        1 UNL1       0.0642
37      H37          1.4773    -4.3846    -1.1148 H        1 UNL1       0.0278
38      H38          0.7840    -5.2658     0.2441 H        1 UNL1       0.0278
39      H39          0.0677    -5.4054    -1.3876 H        1 UNL1       0.0278
40      H40         -3.1083    -5.1583     0.9586 H        1 UNL1       0.0278
41      H41         -2.1525    -5.7832    -0.3833 H        1 UNL1       0.0278
42      H42         -1.4395    -5.6435     1.2498 H        1 UNL1       0.0278
43      H43          4.0449    -1.0088    -0.9916 H        1 UNL1       0.2100
44      H44          6.4071     1.3535     0.4574 H        1 UNL1       0.2100
45      H45          5.1067    -0.0143     3.1942 H        1 UNL1       0.2095
@<TRIPOS>UNITY_ATOM_ATTR
5 1
charge -1
@<TRIPOS>BOND
     1     1    11    1
     2     2    13    1
     3     2    43    1
     4     3    14    1
     5     3    44    1
     6     4    20    1
     7     4    45    1
     8     5    24    1
     9     6    27    2
    10     7    12    1
    11     7    15   ar
    12     7    16   ar
    13     8    17   ar
    14     8    19   ar
    15     9    16   ar
    16     9    27   ar
    17    10    24   ar
    18    10    27   ar
    19    11    12    1
    20    11    13    1
    21    11    28    1
    22    12    29    1
    23    12    30    1
    24    13    14    1
    25    13    31    1
    26    14    20    1
    27    14    32    1
    28    15    17   ar
    29    15    18   ar
    30    16    19    1
    31    17    22   ar
    32    18    21   ar
    33    18    33    1
    34    19    24   ar
    35    20    34    1
    36    20    35    1
    37    21    23   ar
    38    21    25    1
    39    22    23   ar
    40    22    36    1
    41    23    26    1
    42    25    37    1
    43    25    38    1
    44    25    39    1
    45    26    40    1
    46    26    41    1
    47    26    42    1
